Untitled Document
  ChemDraw07031414582D

 32 36  0  0  0  0  0  0  0  0999 V2000
   -2.9162    1.2320    0.0000 Cl  0  0  0  0  0  0  0  0  0  0  0  0
   -0.7818    0.8942    0.0000 O   0  0  0  0  0  0  0  0  0  0  0  0
    1.4947   -1.0537    0.0000 O   0  0  0  0  0  0  0  0  0  0  0  0
    0.7780   -0.4462    0.0000 N   0  0  0  0  0  0  0  0  0  0  0  0
   -0.3429    0.0329    0.0000 N   0  0  0  0  0  0  0  0  0  0  0  0
   -1.2977    0.1841    0.0000 N   0  0  0  0  0  0  0  0  0  0  0  0
    2.3793   -0.7368    0.0000 N   0  0  0  0  0  0  0  0  0  0  0  0
    2.0737   -1.1850    0.0000 N   0  0  0  0  0  0  0  0  0  0  0  0
    2.9000   -0.8889    0.0000 N   0  0  0  0  0  0  0  0  0  0  0  0
    0.4591   -0.8851    0.0000 C   0  0  0  0  0  0  0  0  0  0  0  0
   -0.0828   -0.9094    0.0000 C   0  0  0  0  0  0  0  0  0  0  0  0
   -0.4397   -0.5009    0.0000 C   0  0  0  0  0  0  0  0  0  0  0  0
    0.6337    0.0767    0.0000 C   0  0  0  0  0  0  0  0  0  0  0  0
    0.1348    0.2899    0.0000 C   0  0  0  0  0  0  0  0  0  0  0  0
    0.7304   -1.3549    0.0000 C   0  0  0  0  0  0  0  0  0  0  0  0
    1.3117   -0.5431    0.0000 C   0  0  0  0  0  0  0  0  0  0  0  0
   -0.7818    0.3517    0.0000 C   0  0  0  0  0  0  0  0  0  0  0  0
    1.6625   -0.1292    0.0000 C   0  0  0  0  0  0  0  0  0  0  0  0
    2.1963   -0.2261    0.0000 C   0  0  0  0  0  0  0  0  0  0  0  0
    1.4795    0.3814    0.0000 C   0  0  0  0  0  0  0  0  0  0  0  0
   -1.6165    0.6230    0.0000 C   0  0  0  0  0  0  0  0  0  0  0  0
   -1.2977    1.0619    0.0000 C   0  0  0  0  0  0  0  0  0  0  0  0
    1.8303    0.7953    0.0000 C   0  0  0  0  0  0  0  0  0  0  0  0
    2.5470    0.1877    0.0000 C   0  0  0  0  0  0  0  0  0  0  0  0
    2.3641    0.6984    0.0000 C   0  0  0  0  0  0  0  0  0  0  0  0
   -2.1561    0.6797    0.0000 C   0  0  0  0  0  0  0  0  0  0  0  0
   -1.5183    1.5574    0.0000 C   0  0  0  0  0  0  0  0  0  0  0  0
    1.6473    1.3060    0.0000 C   0  0  0  0  0  0  0  0  0  0  0  0
   -2.3767    1.1753    0.0000 C   0  0  0  0  0  0  0  0  0  0  0  0
   -2.0578    1.6142    0.0000 C   0  0  0  0  0  0  0  0  0  0  0  0
    2.4055   -1.6142    0.0000 C   0  0  0  0  0  0  0  0  0  0  0  0
    2.9162   -1.4312    0.0000 C   0  0  0  0  0  0  0  0  0  0  0  0
  1 29  1  0      
  2 17  1  0      
 22  2  1  0      
  3 16  2  0      
  4 10  1  0      
  4 13  1  0      
  4 16  1  0      
  5 12  1  0      
  5 14  1  0      
  5 17  1  0      
 17  6  2  0      
  6 21  1  0      
  8  7  1  0      
  9  7  1  0      
  7 19  1  0      
  8 31  2  0      
 32  9  2  0      
 10 11  1  0      
 10 15  1  6      
 11 12  1  0      
 13 14  1  0      
 16 18  1  0      
 18 19  1  0      
 18 20  2  0      
 19 24  2  0      
 23 20  1  0      
 22 21  1  0      
 21 26  2  0      
 27 22  2  0      
 25 23  2  0      
 23 28  1  0      
 24 25  1  0      
 29 26  1  0      
 30 27  1  0      
 29 30  2  0      
 31 32  1  0      
V    1 0
V    2 1
V    3 2
V    4 3
V    5 4
V    6 5
V    7 6
V    8 7
V    9 8
V   10 9
V   11 10
V   12 11
V   13 12
V   14 13
V   15 14
V   16 15
V   17 16
V   18 17
V   19 18
V   20 19
V   21 20
V   22 21
V   23 22
V   24 23
V   25 24
V   26 25
V   27 26
V   28 27
V   29 28
V   30 29
V   31 30
V   32 31
M  END
$$$$
